# ====================
# | Model parameters |
# ====================

# Continuous equation parameters
 &PARM01
 &

# Elliptic solver parameters
 &PARM02
 &

# Time stepping parameters
 &PARM03
 &

# Gridding parameters
 &PARM04
 &

# Input datasets
 &PARM05
 usingSphericalPolarGrid=.TRUE.,
 delX = 1/12
 delY = 1/16
 xgOrigin = -78
 ygOrigin = 8
 &
