# Packages
 &PACKAGES
 useCAL         = .TRUE.,
 useEXF         = .TRUE.,
 useDIAGNOSTICS = .TRUE., 
 useGGL90       = .TRUE.,
 useGMREDI      - .TRUE.,
&
