# GM+Redi package parameters:


 &GM_PARM01 
  GM_Small_Number  = 1.D-20,
  GM_slopeSqCutoff = 1.D+08,
  GM_AdvForm         = .TRUE.,
  GM_isopycK         = 80.,
  GM_background_K    = 80.,
  GM_maxSlope        = 4.D-3,
  GM_taper_scheme    = 'ldd97',
  GM_Kmin_horiz      = 8.,
  GM_Scrit           = 4.D-3,
  GM_Sd              = 1.D-3,
 /


